data_image0
_chemical_formula_structural       Au80C2NH3C2NH3C2NH3C2NH3C2NH3C2NH3C2NH3C2NH3C2NH3C2NH3C2NH3C2NH3LiOC
_chemical_formula_sum              "Au80 C25 N12 H36 Li1 O1"
_cell_length_a       11.7724
_cell_length_b       11.7724
_cell_length_c       23
_cell_angle_alpha    90
_cell_angle_beta     90
_cell_angle_gamma    90

_space_group_name_H-M_alt    "P 1"
_space_group_IT_number       1

loop_
  _space_group_symop_operation_xyz
  'x, y, z'

loop_
  _atom_site_type_symbol
  _atom_site_label
  _atom_site_symmetry_multiplicity
  _atom_site_fract_x
  _atom_site_fract_y
  _atom_site_fract_z
  _atom_site_occupancy
  Au  Au1       1.0  0.00000  0.00000  0.00000  1.0000
  Au  Au2       1.0  0.25000  0.00000  0.00000  1.0000
  Au  Au3       1.0  0.50000  0.00000  0.00000  1.0000
  Au  Au4       1.0  0.75000  0.00000  0.00000  1.0000
  Au  Au5       1.0  0.00000  0.25000  0.00000  1.0000
  Au  Au6       1.0  0.25000  0.25000  0.00000  1.0000
  Au  Au7       1.0  0.50000  0.25000  0.00000  1.0000
  Au  Au8       1.0  0.75000  0.25000  0.00000  1.0000
  Au  Au9       1.0  0.00000  0.50000  0.00000  1.0000
  Au  Au10      1.0  0.25000  0.50000  0.00000  1.0000
  Au  Au11      1.0  0.50000  0.50000  0.00000  1.0000
  Au  Au12      1.0  0.75000  0.50000  0.00000  1.0000
  Au  Au13      1.0  0.00000  0.75000  0.00000  1.0000
  Au  Au14      1.0  0.25000  0.75000  0.00000  1.0000
  Au  Au15      1.0  0.50000  0.75000  0.00000  1.0000
  Au  Au16      1.0  0.75000  0.75000  0.00000  1.0000
  Au  Au17      1.0  0.12500  0.12500  0.09048  1.0000
  Au  Au18      1.0  0.37500  0.12500  0.09048  1.0000
  Au  Au19      1.0  0.62500  0.12500  0.09048  1.0000
  Au  Au20      1.0  0.87500  0.12500  0.09048  1.0000
  Au  Au21      1.0  0.12500  0.37500  0.09048  1.0000
  Au  Au22      1.0  0.37500  0.37500  0.09048  1.0000
  Au  Au23      1.0  0.62500  0.37500  0.09048  1.0000
  Au  Au24      1.0  0.87500  0.37500  0.09048  1.0000
  Au  Au25      1.0  0.12500  0.62500  0.09048  1.0000
  Au  Au26      1.0  0.37500  0.62500  0.09048  1.0000
  Au  Au27      1.0  0.62500  0.62500  0.09048  1.0000
  Au  Au28      1.0  0.87500  0.62500  0.09048  1.0000
  Au  Au29      1.0  0.12500  0.87500  0.09048  1.0000
  Au  Au30      1.0  0.37500  0.87500  0.09048  1.0000
  Au  Au31      1.0  0.62500  0.87500  0.09048  1.0000
  Au  Au32      1.0  0.87500  0.87500  0.09048  1.0000
  Au  Au33      1.0  0.99893  0.00096  0.17848  1.0000
  Au  Au34      1.0  0.25049  0.00016  0.17802  1.0000
  Au  Au35      1.0  0.50183  0.00134  0.17850  1.0000
  Au  Au36      1.0  0.75062  0.00012  0.17921  1.0000
  Au  Au37      1.0  0.99891  0.24952  0.17937  1.0000
  Au  Au38      1.0  0.24993  0.25013  0.17838  1.0000
  Au  Au39      1.0  0.50139  0.24986  0.17912  1.0000
  Au  Au40      1.0  0.75046  0.24921  0.17903  1.0000
  Au  Au41      1.0  0.99826  0.49818  0.17864  1.0000
  Au  Au42      1.0  0.24990  0.50036  0.17815  1.0000
  Au  Au43      1.0  0.50164  0.49866  0.17857  1.0000
  Au  Au44      1.0  0.75019  0.49816  0.17909  1.0000
  Au  Au45      1.0  0.00027  0.74969  0.17833  1.0000
  Au  Au46      1.0  0.25025  0.75074  0.17806  1.0000
  Au  Au47      1.0  0.50043  0.75033  0.17825  1.0000
  Au  Au48      1.0  0.75048  0.74938  0.17843  1.0000
  Au  Au49      1.0  0.12594  0.12401  0.26620  1.0000
  Au  Au50      1.0  0.37521  0.12473  0.26608  1.0000
  Au  Au51      1.0  0.62715  0.12590  0.26868  1.0000
  Au  Au52      1.0  0.87378  0.12525  0.26905  1.0000
  Au  Au53      1.0  0.12560  0.37558  0.26592  1.0000
  Au  Au54      1.0  0.37515  0.37603  0.26587  1.0000
  Au  Au55      1.0  0.62679  0.37276  0.26869  1.0000
  Au  Au56      1.0  0.87308  0.37242  0.26905  1.0000
  Au  Au57      1.0  0.12597  0.62477  0.26566  1.0000
  Au  Au58      1.0  0.37546  0.62521  0.26564  1.0000
  Au  Au59      1.0  0.62443  0.62364  0.26603  1.0000
  Au  Au60      1.0  0.87582  0.62341  0.26628  1.0000
  Au  Au61      1.0  0.12626  0.87538  0.26601  1.0000
  Au  Au62      1.0  0.37541  0.87549  0.26609  1.0000
  Au  Au63      1.0  0.62461  0.87461  0.26615  1.0000
  Au  Au64      1.0  0.87665  0.87384  0.26611  1.0000
  Au  Au65      1.0  0.00161  0.99812  0.35468  1.0000
  Au  Au66      1.0  0.25096  0.00013  0.35502  1.0000
  Au  Au67      1.0  0.49983  0.99949  0.35464  1.0000
  Au  Au68      1.0  0.75058  0.99294  0.35453  1.0000
  Au  Au69      1.0  0.00545  0.24960  0.35407  1.0000
  Au  Au70      1.0  0.25010  0.25094  0.35551  1.0000
  Au  Au71      1.0  0.49593  0.25022  0.35479  1.0000
  Au  Au72      1.0  0.74961  0.25051  0.35997  1.0000
  Au  Au73      1.0  0.00182  0.50008  0.35443  1.0000
  Au  Au74      1.0  0.24976  0.50168  0.35594  1.0000
  Au  Au75      1.0  0.49909  0.50152  0.35539  1.0000
  Au  Au76      1.0  0.74995  0.50328  0.35539  1.0000
  Au  Au77      1.0  0.00276  0.74889  0.35396  1.0000
  Au  Au78      1.0  0.25147  0.74936  0.35446  1.0000
  Au  Au79      1.0  0.49956  0.74990  0.35495  1.0000
  Au  Au80      1.0  0.74968  0.74794  0.35357  1.0000
  C   C1        1.0  0.46345  0.57185  0.81429  1.0000
  C   C2        1.0  0.37609  0.62628  0.84884  1.0000
  N   N1        1.0  0.53413  0.52780  0.78674  1.0000
  H   H1        1.0  0.31250  0.66746  0.82078  1.0000
  H   H2        1.0  0.33427  0.56326  0.87707  1.0000
  H   H3        1.0  0.41461  0.69079  0.87742  1.0000
  C   C3        1.0  0.74582  0.43154  0.66438  1.0000
  C   C4        1.0  0.76593  0.54182  0.69032  1.0000
  N   N2        1.0  0.72750  0.34250  0.64410  1.0000
  H   H4        1.0  0.70450  0.55502  0.72582  1.0000
  H   H5        1.0  0.85277  0.54610  0.70774  1.0000
  H   H6        1.0  0.75539  0.60898  0.65746  1.0000
  C   C5        1.0  0.82425  0.94793  0.81832  1.0000
  C   C6        1.0  0.92173  0.90977  0.85150  1.0000
  N   N3        1.0  0.74573  0.97865  0.79159  1.0000
  H   H7        1.0  0.90032  0.83279  0.87636  1.0000
  H   H8        1.0  0.99400  0.89103  0.82272  1.0000
  H   H9        1.0  0.94713  0.97528  0.88328  1.0000
  C   C7        1.0  0.48593  0.94740  0.67710  1.0000
  C   C8        1.0  0.54966  0.85191  0.69973  1.0000
  N   N4        1.0  0.43524  0.02462  0.65854  1.0000
  H   H10       1.0  0.49112  0.78496  0.71443  1.0000
  H   H11       1.0  0.60513  0.81734  0.66541  1.0000
  H   H12       1.0  0.60277  0.88050  0.73636  1.0000
  C   C9        1.0  0.77578  0.76216  0.54639  1.0000
  C   C10       1.0  0.85588  0.76232  0.49888  1.0000
  N   N5        1.0  0.71008  0.76036  0.58441  1.0000
  H   H13       1.0  0.81035  0.75292  0.45700  1.0000
  H   H14       1.0  0.90373  0.84242  0.49761  1.0000
  H   H15       1.0  0.91486  0.69040  0.50371  1.0000
  C   C11       1.0  0.18811  0.94260  0.74908  1.0000
  C   C12       1.0  0.17993  0.05772  0.72696  1.0000
  N   N6        1.0  0.19479  0.84956  0.76640  1.0000
  H   H16       1.0  0.10331  0.06674  0.70001  1.0000
  H   H17       1.0  0.17625  0.11896  0.76299  1.0000
  H   H18       1.0  0.25510  0.07596  0.70008  1.0000
  C   C13       1.0  0.68445  0.24610  0.85631  1.0000
  C   C14       1.0  0.61904  0.24450  0.80320  1.0000
  N   N7        1.0  0.73644  0.24805  0.89941  1.0000
  H   H19       1.0  0.59850  0.33215  0.79009  1.0000
  H   H20       1.0  0.66743  0.20138  0.76879  1.0000
  H   H21       1.0  0.53978  0.19707  0.81053  1.0000
  C   C15       1.0  0.75087  0.16801  0.50226  1.0000
  C   C16       1.0  0.74967  0.10547  0.55628  1.0000
  N   N8        1.0  0.75240  0.21901  0.45882  1.0000
  H   H22       1.0  0.68201  0.04104  0.55524  1.0000
  H   H23       1.0  0.83196  0.06284  0.56324  1.0000
  H   H24       1.0  0.73440  0.16467  0.59255  1.0000
  C   C17       1.0  0.00464  0.44581  0.53513  1.0000
  C   C18       1.0  0.02795  0.33768  0.50766  1.0000
  N   N9        1.0  0.98623  0.53338  0.55694  1.0000
  H   H25       1.0  0.98323  0.33191  0.46562  1.0000
  H   H26       1.0  0.11933  0.32853  0.49919  1.0000
  H   H27       1.0  0.00010  0.26730  0.53555  1.0000
  C   C19       1.0  0.41518  0.33466  0.56757  1.0000
  C   C20       1.0  0.44293  0.30662  0.62681  1.0000
  N   N10       1.0  0.39326  0.35707  0.51952  1.0000
  H   H28       1.0  0.53509  0.31687  0.63354  1.0000
  H   H29       1.0  0.39748  0.36462  0.65624  1.0000
  H   H30       1.0  0.42044  0.21746  0.63586  1.0000
  C   C21       1.0  0.38467  0.62492  0.60139  1.0000
  C   C22       1.0  0.43819  0.67949  0.55191  1.0000
  N   N11       1.0  0.34218  0.58091  0.64136  1.0000
  H   H31       1.0  0.42878  0.62690  0.51267  1.0000
  H   H32       1.0  0.39905  0.76274  0.54355  1.0000
  H   H33       1.0  0.52915  0.69285  0.56075  1.0000
  C   C23       1.0  0.05454  0.88470  0.60148  1.0000
  C   C24       1.0  0.11703  0.77951  0.60866  1.0000
  N   N12       1.0  0.00450  0.96949  0.59533  1.0000
  H   H34       1.0  0.06485  0.70626  0.59541  1.0000
  H   H35       1.0  0.19371  0.78138  0.58143  1.0000
  H   H36       1.0  0.14298  0.76848  0.65425  1.0000
  Li  Li1       1.0  0.37524  0.37760  0.43577  1.0000
  O   O1        1.0  0.11988  0.46901  0.77677  1.0000
  C   C25       1.0  0.16785  0.38539  0.77190  1.0000
